idx :: 26, smiles :: CNc1ccc(NC(C)C)cc1CO, cost :: 0.3783670646058168
     RDKit          3D

 14 14  0  0  0  0  0  0  0  0999 V2000
   21.8450   35.3270   35.1070 C   0  0  0  0  0  0  0  0  0  0  0  0
   23.0100   34.8760   34.3660 N   0  0  0  0  0  0  0  0  0  0  0  0
   23.8100   35.7970   33.6760 C   0  0  0  0  0  0  0  0  0  0  0  0
   23.3770   36.4400   32.5100 C   0  0  0  0  0  0  0  0  0  0  0  0
   24.1740   37.3780   31.8320 C   0  0  0  0  0  0  0  0  0  0  0  0
   25.4430   37.7140   32.2830 C   0  0  0  0  0  0  0  0  0  0  0  0
   26.2770   38.6570   31.7050 N   0  0  0  0  0  0  0  0  0  0  0  0
   26.1850   39.2430   30.3670 C   0  0  0  0  0  0  0  0  0  0  0  0
   26.2930   38.1960   29.2640 C   0  0  0  0  0  0  0  0  0  0  0  0
   27.1180   40.4320   30.1720 C   0  0  0  0  0  0  0  0  0  0  0  0
   25.8420   37.1360   33.4960 C   0  0  0  0  0  0  0  0  0  0  0  0
   25.0440   36.2120   34.2130 C   0  0  0  0  0  0  0  0  0  0  0  0
   25.5810   35.6800   35.5220 C   0  0  0  0  0  0  0  0  0  0  0  0
   25.6590   34.2550   35.5190 O   0  0  0  0  0  0  0  0  0  0  0  0
  1  2  1  0
  2  3  1  0
  3  4  2  0
  4  5  1  0
  5  6  2  0
  6  7  1  0
  7  8  1  0
  8  9  1  0
  8 10  1  0
  6 11  1  0
 11 12  2  0
 12 13  1  0
 13 14  1  0
 12  3  1  0
M  END
