idx :: 32, smiles :: CNc1ccc(S(=O)(=O)C[N+](=O)[O-])cc1, cost :: 0.5300698853400764
     RDKit          3D

 15 15  0  0  0  0  0  0  0  0999 V2000
   26.3620   39.3170   27.7110 C   0  0  0  0  0  0  0  0  0  0  0  0
   26.3480   39.8110   29.0760 N   0  0  0  0  0  0  0  0  0  0  0  0
   25.7570   39.0550   30.0910 C   0  0  0  0  0  0  0  0  0  0  0  0
   26.5790   38.5530   31.1120 C   0  0  0  0  0  0  0  0  0  0  0  0
   26.0510   37.8470   32.1970 C   0  0  0  0  0  0  0  0  0  0  0  0
   24.6740   37.6510   32.2760 C   0  0  0  0  0  0  0  0  0  0  0  0
   23.9860   36.7470   33.6510 S   0  0  0  0  0  6  0  0  0  0  0  0
   23.5200   35.4830   33.1130 O   0  0  0  0  0  0  0  0  0  0  0  0
   23.0790   37.6570   34.3210 O   0  0  0  0  0  0  0  0  0  0  0  0
   25.4120   36.4830   34.6440 C   0  0  0  0  0  0  0  0  0  0  0  0
   25.0850   35.3690   35.5460 N   0  0  0  0  0  4  0  0  0  0  0  0
   25.8710   34.4140   35.5750 O   0  0  0  0  0  0  0  0  0  0  0  0
   24.0950   35.5010   36.2760 O   0  0  0  0  0  1  0  0  0  0  0  0
   23.8260   38.1860   31.3070 C   0  0  0  0  0  0  0  0  0  0  0  0
   24.3720   38.8920   30.2280 C   0  0  0  0  0  0  0  0  0  0  0  0
  1  2  1  0
  2  3  1  0
  3  4  2  0
  4  5  1  0
  5  6  2  0
  6  7  1  0
  7  8  2  0
  7  9  2  0
  7 10  1  0
 10 11  1  0
 11 12  2  0
 11 13  1  0
  6 14  1  0
 14 15  2  0
 15  3  1  0
M  CHG  2  11   1  13  -1
M  END
