idx :: 5, smiles :: CCNC(=O)c1ccc(NC)cc1, cost :: 1.0
     RDKit          3D

 13 13  0  0  0  0  0  0  0  0999 V2000
   28.5060   41.2980   30.9910 C   0  0  0  0  0  0  0  0  0  0  0  0
   27.6980   40.1800   30.3610 C   0  0  0  0  0  0  0  0  0  0  0  0
   26.7590   39.6120   31.3050 N   0  0  0  0  0  0  0  0  0  0  0  0
   26.2310   38.3540   31.0870 C   0  0  0  0  0  0  0  0  0  0  0  0
   26.4330   37.7000   30.0700 O   0  0  0  0  0  0  0  0  0  0  0  0
   25.4100   37.7850   32.1930 C   0  0  0  0  0  0  0  0  0  0  0  0
   26.0600   37.3430   33.3480 C   0  0  0  0  0  0  0  0  0  0  0  0
   25.3240   36.8060   34.4120 C   0  0  0  0  0  0  0  0  0  0  0  0
   23.9350   36.6620   34.3320 C   0  0  0  0  0  0  0  0  0  0  0  0
   23.1410   36.2010   35.3870 N   0  0  0  0  0  0  0  0  0  0  0  0
   23.3910   34.8860   35.9500 C   0  0  0  0  0  0  0  0  0  0  0  0
   23.2960   37.1320   33.1730 C   0  0  0  0  0  0  0  0  0  0  0  0
   24.0210   37.6730   32.1050 C   0  0  0  0  0  0  0  0  0  0  0  0
  1  2  1  0
  2  3  1  0
  3  4  1  0
  4  5  2  0
  4  6  1  0
  6  7  2  0
  7  8  1  0
  8  9  2  0
  9 10  1  0
 10 11  1  0
  9 12  1  0
 12 13  2  0
 13  6  1  0
M  END
