idx :: 30, smiles :: CNCCc1ccc(CCO)cc1, cost :: 0.39262322633166724
     RDKit          3D

 13 13  0  0  0  0  0  0  0  0999 V2000
   21.3940   33.5270   34.8510 C   0  0  0  0  0  0  0  0  0  0  0  0
   22.6480   33.5930   35.5880 N   0  0  0  0  0  0  0  0  0  0  0  0
   22.9980   34.9820   35.9100 C   0  0  0  0  0  0  0  0  0  0  0  0
   24.4390   35.3310   35.5000 C   0  0  0  0  0  0  0  0  0  0  0  0
   24.5350   36.1310   34.2210 C   0  0  0  0  0  0  0  0  0  0  0  0
   23.5000   36.1000   33.2790 C   0  0  0  0  0  0  0  0  0  0  0  0
   23.5910   36.8380   32.0960 C   0  0  0  0  0  0  0  0  0  0  0  0
   24.7230   37.6170   31.8310 C   0  0  0  0  0  0  0  0  0  0  0  0
   24.8140   38.4280   30.5660 C   0  0  0  0  0  0  0  0  0  0  0  0
   26.2380   38.4880   30.0230 C   0  0  0  0  0  0  0  0  0  0  0  0
   26.5890   37.2450   29.4200 O   0  0  0  0  0  0  0  0  0  0  0  0
   25.7580   37.6510   32.7720 C   0  0  0  0  0  0  0  0  0  0  0  0
   25.6670   36.9110   33.9540 C   0  0  0  0  0  0  0  0  0  0  0  0
  1  2  1  0
  2  3  1  0
  3  4  1  0
  4  5  1  0
  5  6  2  0
  6  7  1  0
  7  8  2  0
  8  9  1  0
  9 10  1  0
 10 11  1  0
  8 12  1  0
 12 13  2  0
 13  5  1  0
M  END
