idx :: 6, smiles :: C=CCOCCc1ccc(NC)cc1, cost :: 0.4331532185212018
     RDKit          3D

 14 14  0  0  0  0  0  0  0  0999 V2000
   21.4820   34.7380   34.3790 C   0  0  0  0  0  0  0  0  0  0  0  0
   22.0880   35.0820   35.5240 C   0  0  0  0  0  0  0  0  0  0  0  0
   23.2760   34.3840   36.1020 C   0  0  0  0  0  0  0  0  0  0  0  0
   24.3000   35.3590   36.2690 O   0  0  0  0  0  0  0  0  0  0  0  0
   25.1960   35.3810   35.1550 C   0  0  0  0  0  0  0  0  0  0  0  0
   25.5950   36.8240   34.8410 C   0  0  0  0  0  0  0  0  0  0  0  0
   25.2220   37.2420   33.4370 C   0  0  0  0  0  0  0  0  0  0  0  0
   26.2010   37.6760   32.5380 C   0  0  0  0  0  0  0  0  0  0  0  0
   25.8570   38.0660   31.2380 C   0  0  0  0  0  0  0  0  0  0  0  0
   24.5270   38.0610   30.8080 C   0  0  0  0  0  0  0  0  0  0  0  0
   24.1310   38.3740   29.5010 N   0  0  0  0  0  0  0  0  0  0  0  0
   25.1380   38.4960   28.4640 C   0  0  0  0  0  0  0  0  0  0  0  0
   23.5590   37.5850   31.7030 C   0  0  0  0  0  0  0  0  0  0  0  0
   23.8940   37.1930   33.0040 C   0  0  0  0  0  0  0  0  0  0  0  0
  1  2  2  3
  2  3  1  0
  3  4  1  0
  4  5  1  0
  5  6  1  0
  6  7  1  0
  7  8  2  0
  8  9  1  0
  9 10  2  0
 10 11  1  0
 11 12  1  0
 10 13  1  0
 13 14  2  0
 14  7  1  0
M  END
