idx :: 15, smiles :: CCNC(=O)c1ccc(Cl)cn1, cost :: 0.5367334115797782
     RDKit          3D

 12 12  0  0  0  0  0  0  0  0999 V2000
   22.5400   34.5310   36.6110 C   0  0  0  0  0  0  0  0  0  0  0  0
   23.8930   34.2360   35.9870 C   0  0  0  0  0  0  0  0  0  0  0  0
   24.1090   35.0080   34.7810 N   0  0  0  0  0  0  0  0  0  0  0  0
   24.8790   36.1620   34.8000 C   0  0  0  0  0  0  0  0  0  0  0  0
   25.4810   36.5510   35.7960 O   0  0  0  0  0  0  0  0  0  0  0  0
   24.9310   36.9320   33.5140 C   0  0  0  0  0  0  0  0  0  0  0  0
   23.7750   37.1250   32.7600 C   0  0  0  0  0  0  0  0  0  0  0  0
   23.8700   37.8450   31.5690 C   0  0  0  0  0  0  0  0  0  0  0  0
   25.1080   38.3420   31.1720 C   0  0  0  0  0  0  0  0  0  0  0  0
   25.2630   39.2310   29.7140 Cl  0  0  0  0  0  0  0  0  0  0  0  0
   26.2060   38.1010   31.9830 C   0  0  0  0  0  0  0  0  0  0  0  0
   26.1470   37.4090   33.1470 N   0  0  0  0  0  0  0  0  0  0  0  0
  1  2  1  0
  2  3  1  0
  3  4  1  0
  4  5  2  0
  4  6  1  0
  6  7  2  0
  7  8  1  0
  8  9  2  0
  9 10  1  0
  9 11  1  0
 11 12  2  0
 12  6  1  0
M  END
