idx :: 2, smiles :: CNc1ccc(CCO)cc1C, cost :: 1.0
     RDKit          3D

 12 12  0  0  0  0  0  0  0  0999 V2000
   22.9220   34.2860   36.1890 C   0  0  0  0  0  0  0  0  0  0  0  0
   22.8850   35.7060   35.8890 N   0  0  0  0  0  0  0  0  0  0  0  0
   23.7370   36.2320   34.9040 C   0  0  0  0  0  0  0  0  0  0  0  0
   25.1140   36.3960   35.1130 C   0  0  0  0  0  0  0  0  0  0  0  0
   25.9440   36.9720   34.1440 C   0  0  0  0  0  0  0  0  0  0  0  0
   25.4190   37.4250   32.9330 C   0  0  0  0  0  0  0  0  0  0  0  0
   26.2880   38.0760   31.8800 C   0  0  0  0  0  0  0  0  0  0  0  0
   25.7230   38.0150   30.4560 C   0  0  0  0  0  0  0  0  0  0  0  0
   26.5800   37.2930   29.5750 O   0  0  0  0  0  0  0  0  0  0  0  0
   24.0360   37.3220   32.7360 C   0  0  0  0  0  0  0  0  0  0  0  0
   23.1920   36.7490   33.7100 C   0  0  0  0  0  0  0  0  0  0  0  0
   21.7130   36.6990   33.4310 C   0  0  0  0  0  0  0  0  0  0  0  0
  1  2  1  0
  2  3  1  0
  3  4  2  0
  4  5  1  0
  5  6  2  0
  6  7  1  0
  7  8  1  0
  8  9  1  0
  6 10  1  0
 10 11  2  0
 11 12  1  0
 11  3  1  0
M  END
