idx :: 9, smiles :: CNc1ccc(CCO)cc1C(=O)O, cost :: 1.0
     RDKit          3D

 14 14  0  0  0  0  0  0  0  0999 V2000
   21.6190   34.9770   34.3630 C   0  0  0  0  0  0  0  0  0  0  0  0
   23.0460   35.0560   34.6180 N   0  0  0  0  0  0  0  0  0  0  0  0
   23.8500   35.8560   33.7840 C   0  0  0  0  0  0  0  0  0  0  0  0
   23.3880   36.2870   32.5300 C   0  0  0  0  0  0  0  0  0  0  0  0
   24.1380   37.1530   31.7250 C   0  0  0  0  0  0  0  0  0  0  0  0
   25.3680   37.6490   32.1580 C   0  0  0  0  0  0  0  0  0  0  0  0
   26.1930   38.5740   31.2920 C   0  0  0  0  0  0  0  0  0  0  0  0
   25.9950   38.3610   29.7890 C   0  0  0  0  0  0  0  0  0  0  0  0
   26.7310   37.2360   29.3170 O   0  0  0  0  0  0  0  0  0  0  0  0
   25.8360   37.2520   33.4170 C   0  0  0  0  0  0  0  0  0  0  0  0
   25.0860   36.3790   34.2320 C   0  0  0  0  0  0  0  0  0  0  0  0
   25.6350   35.9730   35.5560 C   0  0  0  0  0  0  0  0  0  0  0  0
   25.9590   34.8460   35.8890 O   0  0  0  0  0  0  0  0  0  0  0  0
   25.7570   37.0020   36.4180 O   0  0  0  0  0  0  0  0  0  0  0  0
  1  2  1  0
  2  3  1  0
  3  4  2  0
  4  5  1  0
  5  6  2  0
  6  7  1  0
  7  8  1  0
  8  9  1  0
  6 10  1  0
 10 11  2  0
 11 12  1  0
 12 13  2  0
 12 14  1  0
 11  3  1  0
M  END
