1074_0
     RDKit          3D

 97103  0  0  0  0  0  0  0  0999 V2000
   73.8110  -33.9500   21.6710 C   0  0  0  0  0  0  0  0  0  0  0  0
   74.2070  -33.4690   23.0820 C   0  0  2  0  0  0  0  0  0  0  0  0
   73.6150  -34.3780   24.2150 C   0  0  1  0  0  0  0  0  0  0  0  0
   73.9250  -35.8720   23.9560 C   0  0  0  0  0  0  0  0  0  0  0  0
   74.1550  -33.9670   25.6150 C   0  0  0  0  0  0  0  0  0  0  0  0
   73.3820  -34.6100   26.7410 C   0  0  0  0  0  0  0  0  0  0  0  0
   72.6240  -33.9000   27.6090 C   0  0  0  0  0  0  0  0  0  0  0  0
   71.8670  -34.5780   28.7380 C   0  0  2  0  0  0  0  0  0  0  0  0
   71.3370  -33.6230   29.6280 O   0  0  0  0  0  0  0  0  0  0  0  0
   72.7990  -35.4500   29.4990 C   0  0  0  0  0  0  0  0  0  0  0  0
   73.5800  -36.1340   30.1140 C   0  0  0  0  0  0  0  0  0  0  0  0
   74.5700  -36.9100   30.8730 C   0  0  0  0  0  0  0  0  0  0  0  0
   75.9800  -36.7170   30.2820 C   0  0  0  0  0  0  0  0  0  0  0  0
   76.0690  -37.1180   28.8300 C   0  0  0  0  0  0  0  0  0  0  0  0
   76.4230  -36.1680   27.8540 C   0  0  0  0  0  0  0  0  0  0  0  0
   76.6420  -36.5820   26.5370 C   0  0  0  0  0  0  0  0  0  0  0  0
   76.5150  -37.9310   26.2030 C   0  0  0  0  0  0  0  0  0  0  0  0
   76.1740  -38.8510   27.1950 C   0  0  0  0  0  0  0  0  0  0  0  0
   75.9750  -38.4330   28.4750 N   0  0  0  0  0  0  0  0  0  0  0  0
   70.7150  -35.4420   28.1210 C   0  0  1  0  0  0  0  0  0  0  0  0
   69.9550  -36.3270   29.1140 C   0  0  0  0  0  0  0  0  0  0  0  0
   68.6420  -35.7050   28.6680 C   0  0  0  0  0  0  0  0  0  0  0  0
   69.3740  -34.7880   27.6800 C   0  0  1  0  0  0  0  0  0  0  0  0
   69.0980  -33.2790   27.9180 C   0  0  0  0  0  0  0  0  0  0  0  0
   67.9600  -32.8230   27.0910 N   0  0  0  0  0  0  0  0  0  0  0  0
   66.6080  -33.2740   27.4780 C   0  0  0  0  0  0  0  0  0  0  0  0
   65.6940  -32.1050   27.9750 C   0  0  2  0  0  0  0  0  0  0  0  0
   66.2380  -31.6310   29.3630 C   0  0  0  0  0  0  0  0  0  0  0  0
   65.2240  -30.7650   30.1060 C   0  0  0  0  0  0  0  0  0  0  0  0
   63.9930  -31.6050   30.4510 C   0  0  0  0  0  0  0  0  0  0  0  0
   63.4380  -32.3190   29.2470 C   0  0  0  0  0  0  0  0  0  0  0  0
   62.1030  -32.7620   29.3030 C   0  0  0  0  0  0  0  0  0  0  0  0
   61.5260  -33.4300   28.2230 C   0  0  0  0  0  0  0  0  0  0  0  0
   59.8620  -33.9840   28.3110 Cl  0  0  0  0  0  0  0  0  0  0  0  0
   62.2710  -33.6470   27.0660 C   0  0  0  0  0  0  0  0  0  0  0  0
   63.5960  -33.2110   26.9900 C   0  0  0  0  0  0  0  0  0  0  0  0
   64.2300  -32.5900   28.0930 C   0  0  0  0  0  0  0  0  0  0  0  0
   65.7430  -30.9100   26.9890 C   0  0  0  0  0  0  0  0  0  0  0  0
   65.8560  -31.3490   25.6410 O   0  0  0  0  0  0  0  0  0  0  0  0
   67.0910  -31.6320   25.0490 C   0  0  0  0  0  0  0  0  0  0  0  0
   67.2670  -31.2270   23.7210 C   0  0  0  0  0  0  0  0  0  0  0  0
   68.5080  -31.3320   23.1000 C   0  0  0  0  0  0  0  0  0  0  0  0
   69.5950  -31.8660   23.8000 C   0  0  0  0  0  0  0  0  0  0  0  0
   69.4070  -32.3700   25.0970 C   0  0  0  0  0  0  0  0  0  0  0  0
   68.1600  -32.2600   25.7550 C   0  0  0  0  0  0  0  0  0  0  0  0
   70.9330  -31.8910   23.1700 C   0  0  0  0  0  0  0  0  0  0  0  0
   71.0290  -32.0700   21.9270 O   0  0  0  0  0  0  0  0  0  0  0  0
   72.1130  -31.6560   23.9520 N   0  0  0  0  0  0  0  0  0  0  0  0
   73.7070  -31.7410   23.2770 S   0  0  0  0  0  0  0  0  0  0  0  0
   74.6660  -31.0590   24.2130 O   0  0  0  0  0  0  0  0  0  0  0  0
   73.7320  -31.0030   21.9640 O   0  0  0  0  0  0  0  0  0  0  0  0
   73.1139  -34.7968   21.7545 H   0  0  0  0  0  0  0  0  0  0  0  0
   73.3250  -33.1273   21.1261 H   0  0  0  0  0  0  0  0  0  0  0  0
   74.7117  -34.2690   21.1261 H   0  0  0  0  0  0  0  0  0  0  0  0
   75.2996  -33.5454   23.1837 H   0  0  0  0  0  0  0  0  0  0  0  0
   72.5245  -34.2345   24.2030 H   0  0  0  0  0  0  0  0  0  0  0  0
   74.0337  -36.3959   24.9171 H   0  0  0  0  0  0  0  0  0  0  0  0
   73.1014  -36.3235   23.3834 H   0  0  0  0  0  0  0  0  0  0  0  0
   74.8602  -35.9585   23.3834 H   0  0  0  0  0  0  0  0  0  0  0  0
   75.2091  -34.2722   25.6907 H   0  0  0  0  0  0  0  0  0  0  0  0
   74.0433  -32.8769   25.7110 H   0  0  0  0  0  0  0  0  0  0  0  0
   73.4371  -35.7020   26.8612 H   0  0  0  0  0  0  0  0  0  0  0  0
   72.5547  -32.8082   27.4943 H   0  0  0  0  0  0  0  0  0  0  0  0
   70.3760  -33.8430   29.7770 H   0  0  0  0  0  0  0  0  0  0  0  0
   74.5678  -36.5729   31.9201 H   0  0  0  0  0  0  0  0  0  0  0  0
   74.3045  -37.9759   30.8155 H   0  0  0  0  0  0  0  0  0  0  0  0
   76.2552  -35.6556   30.3703 H   0  0  0  0  0  0  0  0  0  0  0  0
   76.6656  -37.3664   30.8460 H   0  0  0  0  0  0  0  0  0  0  0  0
   76.5266  -35.1071   28.1256 H   0  0  0  0  0  0  0  0  0  0  0  0
   76.9138  -35.8463   25.7657 H   0  0  0  0  0  0  0  0  0  0  0  0
   76.6820  -38.2655   25.1685 H   0  0  0  0  0  0  0  0  0  0  0  0
   76.0658  -39.9161   26.9422 H   0  0  0  0  0  0  0  0  0  0  0  0
   71.3626  -35.8520   27.3320 H   0  0  0  0  0  0  0  0  0  0  0  0
   70.0344  -37.4044   28.9067 H   0  0  0  0  0  0  0  0  0  0  0  0
   70.2334  -36.3341   30.1782 H   0  0  0  0  0  0  0  0  0  0  0  0
   67.9540  -36.4163   28.1877 H   0  0  0  0  0  0  0  0  0  0  0  0
   67.9624  -35.2700   29.4156 H   0  0  0  0  0  0  0  0  0  0  0  0
   69.1673  -34.7419   26.6006 H   0  0  0  0  0  0  0  0  0  0  0  0
   68.8611  -33.1176   28.9800 H   0  0  0  0  0  0  0  0  0  0  0  0
   69.9936  -32.7053   27.6374 H   0  0  0  0  0  0  0  0  0  0  0  0
   66.1320  -33.7447   26.6052 H   0  0  0  0  0  0  0  0  0  0  0  0
   66.7227  -33.9807   28.3131 H   0  0  0  0  0  0  0  0  0  0  0  0
   66.4674  -32.5152   29.9759 H   0  0  0  0  0  0  0  0  0  0  0  0
   67.1395  -31.0257   29.1873 H   0  0  0  0  0  0  0  0  0  0  0  0
   65.6777  -30.3816   31.0318 H   0  0  0  0  0  0  0  0  0  0  0  0
   64.9249  -29.9206   29.4676 H   0  0  0  0  0  0  0  0  0  0  0  0
   64.2743  -32.3521   31.2078 H   0  0  0  0  0  0  0  0  0  0  0  0
   63.2152  -30.9258   30.8300 H   0  0  0  0  0  0  0  0  0  0  0  0
   61.5075  -32.5791   30.2096 H   0  0  0  0  0  0  0  0  0  0  0  0
   61.8142  -34.1636   26.2090 H   0  0  0  0  0  0  0  0  0  0  0  0
   64.1577  -33.3530   26.0549 H   0  0  0  0  0  0  0  0  0  0  0  0
   64.8207  -30.3203   27.0964 H   0  0  0  0  0  0  0  0  0  0  0  0
   66.6277  -30.3018   27.2285 H   0  0  0  0  0  0  0  0  0  0  0  0
   66.4126  -30.8200   23.1603 H   0  0  0  0  0  0  0  0  0  0  0  0
   68.6339  -30.9956   22.0603 H   0  0  0  0  0  0  0  0  0  0  0  0
   70.2465  -32.8603   25.6116 H   0  0  0  0  0  0  0  0  0  0  0  0
   72.0320  -31.3570   24.9450 H   0  0  0  0  0  0  0  0  0  0  0  0
  1  2  1  0
  2  3  1  0
  3  4  1  0
  3  5  1  0
  5  6  1  0
  6  7  2  3
  7  8  1  0
  8  9  1  0
  8 10  1  1
 10 11  3  0
 11 12  1  0
 12 13  1  0
 13 14  1  0
 14 15  2  0
 15 16  1  0
 16 17  2  0
 17 18  1  0
 18 19  2  0
  8 20  1  0
 20 21  1  0
 21 22  1  0
 22 23  1  0
 23 24  1  0
 24 25  1  0
 25 26  1  0
 27 26  1  6
 27 28  1  0
 28 29  1  0
 29 30  1  0
 30 31  1  0
 31 32  2  0
 32 33  1  0
 33 34  1  0
 33 35  2  0
 35 36  1  0
 36 37  2  0
 27 38  1  0
 38 39  1  0
 39 40  1  0
 40 41  2  0
 41 42  1  0
 42 43  2  0
 43 44  1  0
 44 45  2  0
 43 46  1  0
 46 47  2  0
 46 48  1  0
 48 49  1  0
 49 50  2  0
 49 51  2  0
 49  2  1  0
 19 14  1  0
 23 20  1  0
 45 25  1  0
 37 27  1  0
 45 40  1  0
 37 31  1  0
  1 52  1  0
  1 53  1  0
  1 54  1  0
  2 55  1  6
  3 56  1  1
  4 57  1  0
  4 58  1  0
  4 59  1  0
  5 60  1  0
  5 61  1  0
  6 62  1  0
  7 63  1  0
  9 64  1  0
 12 65  1  0
 12 66  1  0
 13 67  1  0
 13 68  1  0
 15 69  1  0
 16 70  1  0
 17 71  1  0
 18 72  1  0
 20 73  1  6
 21 74  1  0
 21 75  1  0
 22 76  1  0
 22 77  1  0
 23 78  1  6
 24 79  1  0
 24 80  1  0
 26 81  1  0
 26 82  1  0
 28 83  1  0
 28 84  1  0
 29 85  1  0
 29 86  1  0
 30 87  1  0
 30 88  1  0
 32 89  1  0
 35 90  1  0
 36 91  1  0
 38 92  1  0
 38 93  1  0
 41 94  1  0
 42 95  1  0
 44 96  1  0
 48 97  1  0
M  END
