230_0
     RDKit          3D

 97103  0  0  0  0  0  0  0  0999 V2000
   70.3460  -36.9590   17.6390 C   0  0  0  0  0  0  0  0  0  0  0  0
   70.9060  -37.4140   18.8630 O   0  0  0  0  0  0  0  0  0  0  0  0
   72.2720  -37.6640   19.0100 C   0  0  0  0  0  0  0  0  0  0  0  0
   72.9280  -38.6800   18.4200 N   0  0  0  0  0  0  0  0  0  0  0  0
   74.2030  -38.5610   18.7460 N   0  0  0  0  0  0  0  0  0  0  0  0
   75.2530  -39.4280   18.2360 C   0  0  0  0  0  0  0  0  0  0  0  0
   74.3860  -37.4690   19.5150 C   0  0  0  0  0  0  0  0  0  0  0  0
   73.1600  -36.8780   19.7230 C   0  0  0  0  0  0  0  0  0  0  0  0
   72.9040  -35.6530   20.5000 C   0  0  0  0  0  0  0  0  0  0  0  0
   72.2840  -34.7040   19.9580 O   0  0  0  0  0  0  0  0  0  0  0  0
   73.3620  -35.5340   21.8610 N   0  0  0  0  0  0  0  0  0  0  0  0
   73.2500  -34.0650   22.7770 S   0  0  1  0  0  6  0  0  0  0  0  0
   74.1900  -33.0200   22.2260 O   0  0  0  0  0  0  0  0  0  0  0  0
   71.7540  -33.5820   22.6660 N   0  0  0  0  0  0  0  0  0  0  0  0
   71.3250  -32.2320   22.8620 C   0  0  0  0  0  0  0  0  0  0  0  0
   72.0090  -31.2690   22.4040 O   0  0  0  0  0  0  0  0  0  0  0  0
   70.0210  -31.9760   23.5050 C   0  0  0  0  0  0  0  0  0  0  0  0
   69.1660  -31.0010   22.9840 C   0  0  0  0  0  0  0  0  0  0  0  0
   67.9170  -30.7910   23.5550 C   0  0  0  0  0  0  0  0  0  0  0  0
   67.4930  -31.5260   24.6640 C   0  0  0  0  0  0  0  0  0  0  0  0
   68.3500  -32.5020   25.2340 C   0  0  0  0  0  0  0  0  0  0  0  0
   69.6190  -32.7140   24.6380 C   0  0  0  0  0  0  0  0  0  0  0  0
   67.9370  -33.3260   26.3630 N   0  0  0  0  0  0  0  0  0  0  0  0
   68.3710  -34.7350   26.4570 C   0  0  0  0  0  0  0  0  0  0  0  0
   69.4190  -34.9230   27.5910 C   0  0  1  0  0  0  0  0  0  0  0  0
   68.8610  -35.5760   28.8640 C   0  0  0  0  0  0  0  0  0  0  0  0
   69.7370  -36.7990   28.6360 C   0  0  0  0  0  0  0  0  0  0  0  0
   70.3450  -36.1380   27.3940 C   0  0  2  0  0  0  0  0  0  0  0  0
   71.8550  -35.7860   27.4820 C   0  0  1  0  0  0  0  0  0  0  0  0
   72.2320  -35.3520   28.7730 O   0  0  0  0  0  0  0  0  0  0  0  0
   72.7030  -36.9550   27.0140 C   0  0  0  0  0  0  0  0  0  0  0  0
   73.9740  -36.8710   26.5730 C   0  0  0  0  0  0  0  0  0  0  0  0
   74.7880  -35.6070   26.4130 C   0  0  0  0  0  0  0  0  0  0  0  0
   74.8840  -35.0910   24.9380 C   0  0  1  0  0  0  0  0  0  0  0  0
   75.2860  -36.2370   23.9970 C   0  0  0  0  0  0  0  0  0  0  0  0
   73.5760  -34.3340   24.5390 C   0  0  1  0  0  0  0  0  0  0  0  0
   73.4690  -32.9780   25.2820 C   0  0  0  0  0  0  0  0  0  0  0  0
   67.2940  -32.7210   27.5490 C   0  0  0  0  0  0  0  0  0  0  0  0
   65.8260  -32.2920   27.3050 C   0  0  1  0  0  0  0  0  0  0  0  0
   65.0710  -33.4560   26.6010 C   0  0  0  0  0  0  0  0  0  0  0  0
   63.5990  -33.1210   26.3780 C   0  0  0  0  0  0  0  0  0  0  0  0
   62.8700  -32.8450   27.6930 C   0  0  0  0  0  0  0  0  0  0  0  0
   63.7120  -32.1760   28.7610 C   0  0  0  0  0  0  0  0  0  0  0  0
   63.0650  -31.8290   29.9590 C   0  0  0  0  0  0  0  0  0  0  0  0
   63.7820  -31.2920   31.0320 C   0  0  0  0  0  0  0  0  0  0  0  0
   62.9560  -30.8880   32.5350 Cl  0  0  0  0  0  0  0  0  0  0  0  0
   65.1470  -31.0720   30.9070 C   0  0  0  0  0  0  0  0  0  0  0  0
   65.8080  -31.3850   29.7160 C   0  0  0  0  0  0  0  0  0  0  0  0
   65.1100  -31.9640   28.6240 C   0  0  0  0  0  0  0  0  0  0  0  0
   65.8420  -31.0100   26.4490 C   0  0  0  0  0  0  0  0  0  0  0  0
   66.1900  -31.2900   25.1060 O   0  0  0  0  0  0  0  0  0  0  0  0
   69.5081  -36.2782   17.8498 H   0  0  0  0  0  0  0  0  0  0  0  0
   71.1145  -36.4262   17.0598 H   0  0  0  0  0  0  0  0  0  0  0  0
   69.9818  -37.8203   17.0598 H   0  0  0  0  0  0  0  0  0  0  0  0
   75.7983  -39.8782   19.0786 H   0  0  0  0  0  0  0  0  0  0  0  0
   74.8057  -40.2234   17.6218 H   0  0  0  0  0  0  0  0  0  0  0  0
   75.9494  -38.8383   17.6218 H   0  0  0  0  0  0  0  0  0  0  0  0
   75.3490  -37.1117   19.9085 H   0  0  0  0  0  0  0  0  0  0  0  0
   73.8570  -36.3330   22.3090 H   0  0  0  0  0  0  0  0  0  0  0  0
   69.4827  -30.3985   22.1199 H   0  0  0  0  0  0  0  0  0  0  0  0
   67.2487  -30.0305   23.1249 H   0  0  0  0  0  0  0  0  0  0  0  0
   70.2999  -33.4649   25.0653 H   0  0  0  0  0  0  0  0  0  0  0  0
   67.4959  -35.3673   26.6679 H   0  0  0  0  0  0  0  0  0  0  0  0
   68.8342  -35.0227   25.5016 H   0  0  0  0  0  0  0  0  0  0  0  0
   69.8263  -33.9015   27.6171 H   0  0  0  0  0  0  0  0  0  0  0  0
   69.0932  -35.0255   29.7876 H   0  0  0  0  0  0  0  0  0  0  0  0
   67.7750  -35.6911   28.9954 H   0  0  0  0  0  0  0  0  0  0  0  0
   70.4606  -36.9889   29.4425 H   0  0  0  0  0  0  0  0  0  0  0  0
   69.2860  -37.7999   28.5675 H   0  0  0  0  0  0  0  0  0  0  0  0
   70.3694  -36.6949   26.4457 H   0  0  0  0  0  0  0  0  0  0  0  0
   72.0360  -34.9369   26.8065 H   0  0  0  0  0  0  0  0  0  0  0  0
   71.9050  -34.4240   28.9190 H   0  0  0  0  0  0  0  0  0  0  0  0
   72.2420  -37.9535   27.0367 H   0  0  0  0  0  0  0  0  0  0  0  0
   74.4680  -37.8159   26.3027 H   0  0  0  0  0  0  0  0  0  0  0  0
   74.3259  -34.8187   27.0254 H   0  0  0  0  0  0  0  0  0  0  0  0
   75.8129  -35.8471   26.7324 H   0  0  0  0  0  0  0  0  0  0  0  0
   75.6870  -34.3451   24.8442 H   0  0  0  0  0  0  0  0  0  0  0  0
   75.5922  -37.1099   24.5922 H   0  0  0  0  0  0  0  0  0  0  0  0
   74.4293  -36.5081   23.3625 H   0  0  0  0  0  0  0  0  0  0  0  0
   76.1243  -35.9135   23.3625 H   0  0  0  0  0  0  0  0  0  0  0  0
   72.7990  -35.0464   24.8532 H   0  0  0  0  0  0  0  0  0  0  0  0
   73.4828  -33.1528   26.3679 H   0  0  0  0  0  0  0  0  0  0  0  0
   74.3195  -32.3387   25.0027 H   0  0  0  0  0  0  0  0  0  0  0  0
   72.5288  -32.4800   25.0027 H   0  0  0  0  0  0  0  0  0  0  0  0
   67.3104  -33.4563   28.3669 H   0  0  0  0  0  0  0  0  0  0  0  0
   67.8603  -31.8106   27.7947 H   0  0  0  0  0  0  0  0  0  0  0  0
   65.5439  -33.6501   25.6270 H   0  0  0  0  0  0  0  0  0  0  0  0
   65.1263  -34.3425   27.2498 H   0  0  0  0  0  0  0  0  0  0  0  0
   63.5306  -32.2278   25.7396 H   0  0  0  0  0  0  0  0  0  0  0  0
   63.1212  -33.9888   25.8998 H   0  0  0  0  0  0  0  0  0  0  0  0
   62.0107  -32.1930   27.4771 H   0  0  0  0  0  0  0  0  0  0  0  0
   62.5811  -33.8263   28.0975 H   0  0  0  0  0  0  0  0  0  0  0  0
   61.9798  -31.9820   30.0537 H   0  0  0  0  0  0  0  0  0  0  0  0
   65.7119  -30.6487   31.7506 H   0  0  0  0  0  0  0  0  0  0  0  0
   66.8847  -31.1797   29.6235 H   0  0  0  0  0  0  0  0  0  0  0  0
   64.8421  -30.5521   26.4716 H   0  0  0  0  0  0  0  0  0  0  0  0
   66.5947  -30.3247   26.8660 H   0  0  0  0  0  0  0  0  0  0  0  0
  1  2  1  0
  2  3  1  0
  3  4  2  0
  4  5  1  0
  5  6  1  0
  5  7  1  0
  7  8  2  0
  8  9  1  0
  9 10  2  0
  9 11  1  0
 12 11  1  6
 12 13  2  0
 12 14  2  0
 14 15  1  0
 15 16  2  0
 15 17  1  0
 17 18  2  0
 18 19  1  0
 19 20  2  0
 20 21  1  0
 21 22  2  0
 21 23  1  0
 23 24  1  0
 24 25  1  0
 25 26  1  0
 26 27  1  0
 27 28  1  0
 28 29  1  0
 29 30  1  0
 29 31  1  0
 31 32  2  3
 32 33  1  0
 33 34  1  0
 34 35  1  0
 34 36  1  0
 36 37  1  0
 23 38  1  0
 39 38  1  1
 39 40  1  0
 40 41  1  0
 41 42  1  0
 42 43  1  0
 43 44  2  0
 44 45  1  0
 45 46  1  0
 45 47  2  0
 47 48  1  0
 48 49  2  0
 39 50  1  0
 50 51  1  0
  8  3  1  0
 36 12  1  0
 49 39  1  0
 22 17  1  0
 28 25  1  0
 49 43  1  0
 51 20  1  0
  1 52  1  0
  1 53  1  0
  1 54  1  0
  6 55  1  0
  6 56  1  0
  6 57  1  0
  7 58  1  0
 11 59  1  0
 18 60  1  0
 19 61  1  0
 22 62  1  0
 24 63  1  0
 24 64  1  0
 25 65  1  1
 26 66  1  0
 26 67  1  0
 27 68  1  0
 27 69  1  0
 28 70  1  6
 29 71  1  6
 30 72  1  0
 31 73  1  0
 32 74  1  0
 33 75  1  0
 33 76  1  0
 34 77  1  1
 35 78  1  0
 35 79  1  0
 35 80  1  0
 36 81  1  1
 37 82  1  0
 37 83  1  0
 37 84  1  0
 38 85  1  0
 38 86  1  0
 40 87  1  0
 40 88  1  0
 41 89  1  0
 41 90  1  0
 42 91  1  0
 42 92  1  0
 44 93  1  0
 47 94  1  0
 48 95  1  0
 50 96  1  0
 50 97  1  0
M  END
