INDUCED MYELOID LEUKEMIA CELL DIFFERENTIATION PROTEIN MCL-
     RDKit          3D

 60 62  0  0  0  0  0  0  0  0999 V2000
   70.0920  -30.9610   23.4970 O   0  0  0  0  0  0  0  0  0  0  0  0
   70.8790  -31.4330   24.3470 C   0  0  0  0  0  0  0  0  0  0  0  0
   72.0930  -31.1000   24.3600 O   0  0  0  0  0  0  0  0  0  0  0  0
   70.4240  -32.4200   25.3470 C   0  0  0  0  0  0  0  0  0  0  0  0
   71.4380  -33.1040   26.4870 S   0  0  0  0  0  0  0  0  0  0  0  0
   70.3290  -34.1390   27.2640 C   0  0  0  0  0  0  0  0  0  0  0  0
   70.4140  -35.0340   28.3240 C   0  0  0  0  0  0  0  0  0  0  0  0
   69.2840  -35.7240   28.7290 C   0  0  0  0  0  0  0  0  0  0  0  0
   68.0450  -35.5110   28.1150 C   0  0  0  0  0  0  0  0  0  0  0  0
   67.9450  -34.6060   27.0620 C   0  0  0  0  0  0  0  0  0  0  0  0
   69.0900  -33.9290   26.6290 C   0  0  0  0  0  0  0  0  0  0  0  0
   69.1440  -32.9730   25.5730 C   0  0  0  0  0  0  0  0  0  0  0  0
   67.9340  -32.5780   24.7860 C   0  0  0  0  0  0  0  0  0  0  0  0
   67.3320  -31.2610   25.1790 C   0  0  0  0  0  0  0  0  0  0  0  0
   66.4320  -31.2290   26.3720 C   0  0  0  0  0  0  0  0  0  0  0  0
   65.5300  -32.2760   26.4560 O   0  0  0  0  0  0  0  0  0  0  0  0
   64.6050  -32.3310   27.4600 C   0  0  0  0  0  0  0  0  0  0  0  0
   63.3620  -32.8710   27.1790 C   0  0  0  0  0  0  0  0  0  0  0  0
   62.4220  -32.9640   28.1910 C   0  0  0  0  0  0  0  0  0  0  0  0
   61.0650  -33.5640   27.9340 C   0  0  0  0  0  0  0  0  0  0  0  0
   62.7330  -32.4970   29.4630 C   0  0  0  0  0  0  0  0  0  0  0  0
   61.5390  -32.6300   30.6950 Cl  0  0  0  0  0  0  0  0  0  0  0  0
   63.9770  -31.9540   29.7440 C   0  0  0  0  0  0  0  0  0  0  0  0
   64.2840  -31.4470   31.1220 C   0  0  0  0  0  0  0  0  0  0  0  0
   64.9190  -31.8570   28.7290 C   0  0  0  0  0  0  0  0  0  0  0  0
   69.3404  -30.5103   23.9575 H   0  0  0  0  0  0  0  0  0  0  0  0
   71.1145  -32.2649   23.6670 H   0  0  0  0  0  0  0  0  0  0  0  0
   72.4019  -31.0153   25.2967 H   0  0  0  0  0  0  0  0  0  0  0  0
   70.1953  -31.6040   26.0483 H   0  0  0  0  0  0  0  0  0  0  0  0
   70.0682  -33.3329   27.9655 H   0  0  0  0  0  0  0  0  0  0  0  0
   70.7698  -34.4644   29.1952 H   0  0  0  0  0  0  0  0  0  0  0  0
   71.0746  -35.8253   27.9400 H   0  0  0  0  0  0  0  0  0  0  0  0
   69.5119  -36.7933   28.6083 H   0  0  0  0  0  0  0  0  0  0  0  0
   69.1177  -35.3357   29.7447 H   0  0  0  0  0  0  0  0  0  0  0  0
   67.7068  -36.4851   27.7320 H   0  0  0  0  0  0  0  0  0  0  0  0
   67.4409  -35.0484   28.9094 H   0  0  0  0  0  0  0  0  0  0  0  0
   67.5550  -35.1623   26.1969 H   0  0  0  0  0  0  0  0  0  0  0  0
   67.3072  -33.8061   27.4662 H   0  0  0  0  0  0  0  0  0  0  0  0
   69.2947  -34.7354   25.9094 H   0  0  0  0  0  0  0  0  0  0  0  0
   69.3587  -33.7681   24.8438 H   0  0  0  0  0  0  0  0  0  0  0  0
   67.1693  -33.3575   24.9192 H   0  0  0  0  0  0  0  0  0  0  0  0
   68.2644  -32.4691   23.7425 H   0  0  0  0  0  0  0  0  0  0  0  0
   68.1627  -30.5678   25.3773 H   0  0  0  0  0  0  0  0  0  0  0  0
   66.6789  -30.9946   24.3349 H   0  0  0  0  0  0  0  0  0  0  0  0
   67.0612  -31.2482   27.2741 H   0  0  0  0  0  0  0  0  0  0  0  0
   65.8301  -30.3132   26.2769 H   0  0  0  0  0  0  0  0  0  0  0  0
   64.2353  -31.3338   27.1790 H   0  0  0  0  0  0  0  0  0  0  0  0
   62.9171  -32.2564   26.3825 H   0  0  0  0  0  0  0  0  0  0  0  0
   63.5824  -33.9194   26.9293 H   0  0  0  0  0  0  0  0  0  0  0  0
   62.8102  -33.9574   28.4603 H   0  0  0  0  0  0  0  0  0  0  0  0
   60.5727  -33.7817   28.8933 H   0  0  0  0  0  0  0  0  0  0  0  0
   60.4523  -32.8529   27.3605 H   0  0  0  0  0  0  0  0  0  0  0  0
   61.1787  -34.4957   27.3605 H   0  0  0  0  0  0  0  0  0  0  0  0
   63.1063  -33.4945   29.7380 H   0  0  0  0  0  0  0  0  0  0  0  0
   63.5791  -30.9660   29.4691 H   0  0  0  0  0  0  0  0  0  0  0  0
   63.8656  -32.1380   31.8686 H   0  0  0  0  0  0  0  0  0  0  0  0
   65.3741  -31.3808   31.2539 H   0  0  0  0  0  0  0  0  0  0  0  0
   63.8375  -30.4504   31.2539 H   0  0  0  0  0  0  0  0  0  0  0  0
   65.8104  -32.4069   29.0652 H   0  0  0  0  0  0  0  0  0  0  0  0
   65.0310  -30.7728   28.5811 H   0  0  0  0  0  0  0  0  0  0  0  0
 20 19  1  0
 24 23  1  0
  8  7  1  0
  8  9  1  0
  9 10  1  0
  7  6  1  0
 10 11  1  0
 18 17  1  0
 18 19  1  0
 25 17  1  0
 25 23  1  0
 14 13  1  0
 14 15  1  0
 15 16  1  0
 13 12  1  0
  2  1  1  0
  2  3  1  0
  2  4  1  0
 19 21  1  0
 23 21  1  0
 17 16  1  0
 21 22  1  0
 12  4  1  0
 12 11  1  0
  4  5  1  0
  6  5  1  0
  6 11  1  0
  1 26  1  0
  2 27  1  0
  3 28  1  0
  4 29  1  0
  6 30  1  0
  7 31  1  0
  7 32  1  0
  8 33  1  0
  8 34  1  0
  9 35  1  0
  9 36  1  0
 10 37  1  0
 10 38  1  0
 11 39  1  0
 12 40  1  0
 13 41  1  0
 13 42  1  0
 14 43  1  0
 14 44  1  0
 15 45  1  0
 15 46  1  0
 17 47  1  0
 18 48  1  0
 18 49  1  0
 19 50  1  0
 20 51  1  0
 20 52  1  0
 20 53  1  0
 21 54  1  0
 23 55  1  0
 24 56  1  0
 24 57  1  0
 24 58  1  0
 25 59  1  0
 25 60  1  0
M  END
