idx :: 12, smiles :: N#Cc1cc2c(OCc3cccc(C(F)(F)F)c3)cccc2[nH]1, cost :: 0.3501275992417787
     RDKit          3D

 23 25  0  0  0  0  0  0  0  0999 V2000
   68.2190   34.0730   43.8660 N   0  0  0  0  0  0  0  0  0  0  0  0
   67.6210   34.2260   44.8480 C   0  0  0  0  0  0  0  0  0  0  0  0
   66.9080   34.4470   46.0560 C   0  0  0  0  0  0  0  0  0  0  0  0
   65.5740   34.2220   46.3160 C   0  0  0  0  0  0  0  0  0  0  0  0
   65.3250   34.6020   47.6660 C   0  0  0  0  0  0  0  0  0  0  0  0
   64.1860   34.6090   48.4980 C   0  0  0  0  0  0  0  0  0  0  0  0
   62.9740   34.1400   48.0440 O   0  0  0  0  0  0  0  0  0  0  0  0
   62.1150   35.2430   47.7260 C   0  0  0  0  0  0  0  0  0  0  0  0
   61.6680   35.1680   46.2800 C   0  0  0  0  0  0  0  0  0  0  0  0
   61.0400   36.2790   45.6960 C   0  0  0  0  0  0  0  0  0  0  0  0
   60.5880   36.2270   44.3770 C   0  0  0  0  0  0  0  0  0  0  0  0
   60.7470   35.0630   43.6280 C   0  0  0  0  0  0  0  0  0  0  0  0
   61.3520   33.9330   44.1910 C   0  0  0  0  0  0  0  0  0  0  0  0
   61.5440   32.6740   43.3820 C   0  0  0  0  0  0  0  0  0  0  0  0
   61.1790   32.8150   42.0770 F   0  0  0  0  0  0  0  0  0  0  0  0
   60.8220   31.6200   43.8560 F   0  0  0  0  0  0  0  0  0  0  0  0
   62.8410   32.2610   43.3630 F   0  0  0  0  0  0  0  0  0  0  0  0
   61.8080   33.9970   45.5190 C   0  0  0  0  0  0  0  0  0  0  0  0
   64.2970   35.0200   49.8310 C   0  0  0  0  0  0  0  0  0  0  0  0
   65.5200   35.4640   50.3290 C   0  0  0  0  0  0  0  0  0  0  0  0
   66.6640   35.4900   49.5210 C   0  0  0  0  0  0  0  0  0  0  0  0
   66.5370   35.0480   48.1970 C   0  0  0  0  0  0  0  0  0  0  0  0
   67.4790   34.9440   47.1990 N   0  0  0  0  0  0  0  0  0  0  0  0
  1  2  3  0
  2  3  1  0
  3  4  2  0
  4  5  1  0
  5  6  2  0
  6  7  1  0
  7  8  1  0
  8  9  1  0
  9 10  2  0
 10 11  1  0
 11 12  2  0
 12 13  1  0
 13 14  1  0
 14 15  1  0
 14 16  1  0
 14 17  1  0
 13 18  2  0
  6 19  1  0
 19 20  2  0
 20 21  1  0
 21 22  2  0
 22 23  1  0
 23  3  1  0
 22  5  1  0
 18  9  1  0
M  END
