idx :: 4, smiles :: Cc1ccc2nc(COc3cccc4[nH]c(C#N)cc34)oc2c1, cost :: 0.5402878860953134
     RDKit          3D

 23 26  0  0  0  0  0  0  0  0999 V2000
   59.1210   33.7460   41.0930 C   0  0  0  0  0  0  0  0  0  0  0  0
   59.6080   34.5170   42.2890 C   0  0  0  0  0  0  0  0  0  0  0  0
   59.6330   35.9230   42.2560 C   0  0  0  0  0  0  0  0  0  0  0  0
   60.1000   36.6780   43.3460 C   0  0  0  0  0  0  0  0  0  0  0  0
   60.5600   35.9890   44.4760 C   0  0  0  0  0  0  0  0  0  0  0  0
   61.0600   36.4440   45.6690 N   0  0  0  0  0  0  0  0  0  0  0  0
   61.3420   35.3350   46.3310 C   0  0  0  0  0  0  0  0  0  0  0  0
   61.9120   35.1810   47.6970 C   0  0  0  0  0  0  0  0  0  0  0  0
   62.8860   34.1330   47.6300 O   0  0  0  0  0  0  0  0  0  0  0  0
   64.0850   34.5660   48.1560 C   0  0  0  0  0  0  0  0  0  0  0  0
   64.0970   34.9290   49.5060 C   0  0  0  0  0  0  0  0  0  0  0  0
   65.2800   35.3420   50.1130 C   0  0  0  0  0  0  0  0  0  0  0  0
   66.4800   35.3900   49.3950 C   0  0  0  0  0  0  0  0  0  0  0  0
   66.4540   34.9880   48.0540 C   0  0  0  0  0  0  0  0  0  0  0  0
   67.4750   34.9040   47.1330 N   0  0  0  0  0  0  0  0  0  0  0  0
   67.0000   34.4250   45.9400 C   0  0  0  0  0  0  0  0  0  0  0  0
   67.8160   34.2110   44.7970 C   0  0  0  0  0  0  0  0  0  0  0  0
   68.4480   34.0360   43.8410 N   0  0  0  0  0  0  0  0  0  0  0  0
   65.6480   34.2040   46.0850 C   0  0  0  0  0  0  0  0  0  0  0  0
   65.2850   34.5660   47.4150 C   0  0  0  0  0  0  0  0  0  0  0  0
   61.0440   34.1730   45.6610 O   0  0  0  0  0  0  0  0  0  0  0  0
   60.5430   34.6050   44.4670 C   0  0  0  0  0  0  0  0  0  0  0  0
   60.0890   33.8220   43.4130 C   0  0  0  0  0  0  0  0  0  0  0  0
  1  2  1  0
  2  3  2  0
  3  4  1  0
  4  5  2  0
  5  6  1  0
  6  7  2  0
  7  8  1  0
  8  9  1  0
  9 10  1  0
 10 11  2  0
 11 12  1  0
 12 13  2  0
 13 14  1  0
 14 15  1  0
 15 16  1  0
 16 17  1  0
 17 18  3  0
 16 19  2  0
 19 20  1  0
  7 21  1  0
 21 22  1  0
 22 23  2  0
 23  2  1  0
 22  5  1  0
 20 10  1  0
 20 14  2  0
M  END
