idx :: 11, smiles :: CC(=O)NCc1cc2c(CCNC(=O)C(C)C)cccc2[nH]1, cost :: 0.22540536241117815
     RDKit          3D

 22 23  0  0  0  0  0  0  0  0999 V2000
   56.5650   33.1970   44.0980 C   0  0  0  0  0  0  0  0  0  0  0  0
   57.8410   33.8150   43.5890 C   0  0  0  0  0  0  0  0  0  0  0  0
   58.1020   33.8770   42.3930 O   0  0  0  0  0  0  0  0  0  0  0  0
   58.6640   34.3050   44.5740 N   0  0  0  0  0  0  0  0  0  0  0  0
   59.9750   34.8030   44.2440 C   0  0  0  0  0  0  0  0  0  0  0  0
   60.8300   34.6240   45.4420 C   0  0  0  0  0  0  0  0  0  0  0  0
   62.1910   34.7730   45.6200 C   0  0  0  0  0  0  0  0  0  0  0  0
   62.5000   34.4720   46.9790 C   0  0  0  0  0  0  0  0  0  0  0  0
   63.6990   34.4490   47.7350 C   0  0  0  0  0  0  0  0  0  0  0  0
   65.0540   34.7710   47.1500 C   0  0  0  0  0  0  0  0  0  0  0  0
   65.7800   33.5050   46.6920 C   0  0  0  0  0  0  0  0  0  0  0  0
   65.5340   33.2080   45.2920 N   0  0  0  0  0  0  0  0  0  0  0  0
   66.5030   33.4080   44.3310 C   0  0  0  0  0  0  0  0  0  0  0  0
   67.6300   33.8100   44.5970 O   0  0  0  0  0  0  0  0  0  0  0  0
   66.0350   33.0890   42.9120 C   0  0  0  0  0  0  0  0  0  0  0  0
   67.0220   32.1620   42.2060 C   0  0  0  0  0  0  0  0  0  0  0  0
   64.6410   32.4650   42.9310 C   0  0  0  0  0  0  0  0  0  0  0  0
   63.6120   34.0750   49.0920 C   0  0  0  0  0  0  0  0  0  0  0  0
   62.3940   33.7480   49.6840 C   0  0  0  0  0  0  0  0  0  0  0  0
   61.2090   33.7780   48.9480 C   0  0  0  0  0  0  0  0  0  0  0  0
   61.2960   34.1410   47.6000 C   0  0  0  0  0  0  0  0  0  0  0  0
   60.3030   34.2510   46.6540 N   0  0  0  0  0  0  0  0  0  0  0  0
  1  2  1  0
  2  3  2  0
  2  4  1  0
  4  5  1  0
  5  6  1  0
  6  7  2  0
  7  8  1  0
  8  9  2  0
  9 10  1  0
 10 11  1  0
 11 12  1  0
 12 13  1  0
 13 14  2  0
 13 15  1  0
 15 16  1  0
 15 17  1  0
  9 18  1  0
 18 19  2  0
 19 20  1  0
 20 21  2  0
 21 22  1  0
 22  6  1  0
 21  8  1  0
M  END
