idx :: 3, smiles :: CC(=O)NCc1cc2c(OC[C@@H](O)CNC(C)(C)C)cccc2[nH]1, cost :: 1.0
     RDKit          3D

 24 25  0  0  0  0  0  0  0  0999 V2000
   65.8830   32.7520   42.7370 C   0  0  0  0  0  0  0  0  0  0  0  0
   66.9740   33.3570   43.5800 C   0  0  0  0  0  0  0  0  0  0  0  0
   68.1310   33.4440   43.1830 O   0  0  0  0  0  0  0  0  0  0  0  0
   66.5600   33.7870   44.8180 N   0  0  0  0  0  0  0  0  0  0  0  0
   67.4590   34.5180   45.6730 C   0  0  0  0  0  0  0  0  0  0  0  0
   66.7470   34.7680   46.9490 C   0  0  0  0  0  0  0  0  0  0  0  0
   65.4000   34.7890   47.2490 C   0  0  0  0  0  0  0  0  0  0  0  0
   65.2560   35.0770   48.6390 C   0  0  0  0  0  0  0  0  0  0  0  0
   64.1410   35.2170   49.4980 C   0  0  0  0  0  0  0  0  0  0  0  0
   62.9010   35.0730   48.9360 O   0  0  0  0  0  0  0  0  0  0  0  0
   61.9370   34.2690   49.6290 C   0  0  0  0  0  0  0  0  0  0  0  0
   61.0890   33.4890   48.6110 C   0  0  1  0  0  0  0  0  0  0  0  0
   59.7060   33.7560   48.8990 O   0  0  0  0  0  0  0  0  0  0  0  0
   61.4170   33.9270   47.1700 C   0  0  0  0  0  0  0  0  0  0  0  0
   60.2780   34.2870   46.3070 N   0  0  0  0  0  0  0  0  0  0  0  0
   60.5490   34.8800   44.9800 C   0  0  0  0  0  0  0  0  0  0  0  0
   59.2780   34.9390   44.1170 C   0  0  0  0  0  0  0  0  0  0  0  0
   61.2240   36.2600   45.0400 C   0  0  0  0  0  0  0  0  0  0  0  0
   61.5280   33.9100   44.2770 C   0  0  0  0  0  0  0  0  0  0  0  0
   64.3820   35.5310   50.8450 C   0  0  0  0  0  0  0  0  0  0  0  0
   65.6830   35.6770   51.3320 C   0  0  0  0  0  0  0  0  0  0  0  0
   66.7910   35.5240   50.4970 C   0  0  0  0  0  0  0  0  0  0  0  0
   66.5440   35.2290   49.1530 C   0  0  0  0  0  0  0  0  0  0  0  0
   67.4260   35.0400   48.1130 N   0  0  0  0  0  0  0  0  0  0  0  0
  1  2  1  0
  2  3  2  0
  2  4  1  0
  4  5  1  0
  5  6  1  0
  6  7  2  0
  7  8  1  0
  8  9  2  0
  9 10  1  0
 10 11  1  0
 11 12  1  0
 12 13  1  1
 12 14  1  0
 14 15  1  0
 15 16  1  0
 16 17  1  0
 16 18  1  0
 16 19  1  0
  9 20  1  0
 20 21  2  0
 21 22  1  0
 22 23  2  0
 23 24  1  0
 24  6  1  0
 23  8  1  0
M  END
