idx :: 17, smiles :: CCN(CC)Cc1cccc(COc2cccc3[nH]c(C#N)cc23)c1, cost :: 0.24436700096787323
     RDKit          3D

 25 27  0  0  0  0  0  0  0  0999 V2000
   62.1680   32.2860   41.1560 C   0  0  0  0  0  0  0  0  0  0  0  0
   60.6640   32.0240   41.1850 C   0  0  0  0  0  0  0  0  0  0  0  0
   60.0050   32.6720   42.3360 N   0  0  0  0  0  0  0  0  0  0  0  0
   58.7140   32.0260   42.6380 C   0  0  0  0  0  0  0  0  0  0  0  0
   58.8600   30.5310   42.9080 C   0  0  0  0  0  0  0  0  0  0  0  0
   60.8940   32.6420   43.5190 C   0  0  0  0  0  0  0  0  0  0  0  0
   60.9740   33.9690   44.2500 C   0  0  0  0  0  0  0  0  0  0  0  0
   60.5600   35.1520   43.6230 C   0  0  0  0  0  0  0  0  0  0  0  0
   60.6130   36.3690   44.3010 C   0  0  0  0  0  0  0  0  0  0  0  0
   61.0710   36.4160   45.6170 C   0  0  0  0  0  0  0  0  0  0  0  0
   61.4710   35.2440   46.2750 C   0  0  0  0  0  0  0  0  0  0  0  0
   62.0030   35.2940   47.6890 C   0  0  0  0  0  0  0  0  0  0  0  0
   62.8100   34.1360   47.9400 O   0  0  0  0  0  0  0  0  0  0  0  0
   64.0340   34.5210   48.4440 C   0  0  0  0  0  0  0  0  0  0  0  0
   64.0900   34.9770   49.7650 C   0  0  0  0  0  0  0  0  0  0  0  0
   65.2980   35.4050   50.3090 C   0  0  0  0  0  0  0  0  0  0  0  0
   66.4740   35.4070   49.5500 C   0  0  0  0  0  0  0  0  0  0  0  0
   66.3900   34.9780   48.2190 C   0  0  0  0  0  0  0  0  0  0  0  0
   67.3620   34.8990   47.2470 N   0  0  0  0  0  0  0  0  0  0  0  0
   66.8240   34.4380   46.0730 C   0  0  0  0  0  0  0  0  0  0  0  0
   67.5720   34.2520   44.8800 C   0  0  0  0  0  0  0  0  0  0  0  0
   68.2010   34.0790   43.9210 N   0  0  0  0  0  0  0  0  0  0  0  0
   65.4820   34.2120   46.2870 C   0  0  0  0  0  0  0  0  0  0  0  0
   65.1950   34.5420   47.6420 C   0  0  0  0  0  0  0  0  0  0  0  0
   61.4240   34.0250   45.5790 C   0  0  0  0  0  0  0  0  0  0  0  0
  1  2  1  0
  2  3  1  0
  3  4  1  0
  4  5  1  0
  3  6  1  0
  6  7  1  0
  7  8  2  0
  8  9  1  0
  9 10  2  0
 10 11  1  0
 11 12  1  0
 12 13  1  0
 13 14  1  0
 14 15  2  0
 15 16  1  0
 16 17  2  0
 17 18  1  0
 18 19  1  0
 19 20  1  0
 20 21  1  0
 21 22  3  0
 20 23  2  0
 23 24  1  0
 11 25  2  0
 25  7  1  0
 24 14  1  0
 24 18  2  0
M  END
