idx :: 28, smiles :: N#Cc1cc2c(OCc3nc4ccc(C(=O)CO)cc4o3)cccc2[nH]1, cost :: 0.49843728791641106
     RDKit          3D

 26 29  0  0  0  0  0  0  0  0999 V2000
   68.3240   34.0860   43.8250 N   0  0  0  0  0  0  0  0  0  0  0  0
   67.6760   34.2030   44.7800 C   0  0  0  0  0  0  0  0  0  0  0  0
   66.8830   34.3880   45.9430 C   0  0  0  0  0  0  0  0  0  0  0  0
   65.5330   34.1660   46.1000 C   0  0  0  0  0  0  0  0  0  0  0  0
   65.1950   34.4760   47.4490 C   0  0  0  0  0  0  0  0  0  0  0  0
   64.0080   34.4360   48.2120 C   0  0  0  0  0  0  0  0  0  0  0  0
   62.8000   34.0310   47.6830 O   0  0  0  0  0  0  0  0  0  0  0  0
   61.8590   35.1140   47.7320 C   0  0  0  0  0  0  0  0  0  0  0  0
   61.2990   35.2660   46.3610 C   0  0  0  0  0  0  0  0  0  0  0  0
   60.9480   36.3720   45.7240 N   0  0  0  0  0  0  0  0  0  0  0  0
   60.4970   35.9180   44.5130 C   0  0  0  0  0  0  0  0  0  0  0  0
   59.9950   36.6040   43.4010 C   0  0  0  0  0  0  0  0  0  0  0  0
   59.6020   35.8580   42.2750 C   0  0  0  0  0  0  0  0  0  0  0  0
   59.7030   34.4530   42.2620 C   0  0  0  0  0  0  0  0  0  0  0  0
   59.2890   33.6450   41.0770 C   0  0  0  0  0  0  0  0  0  0  0  0
   60.1410   33.1390   40.3450 O   0  0  0  0  0  0  0  0  0  0  0  0
   57.8070   33.4540   40.7820 C   0  0  0  0  0  0  0  0  0  0  0  0
   57.5440   33.5590   39.3890 O   0  0  0  0  0  0  0  0  0  0  0  0
   60.2030   33.7570   43.3780 C   0  0  0  0  0  0  0  0  0  0  0  0
   60.5820   34.5370   44.4630 C   0  0  0  0  0  0  0  0  0  0  0  0
   61.0910   34.1070   45.6520 O   0  0  0  0  0  0  0  0  0  0  0  0
   64.0130   34.8870   49.5360 C   0  0  0  0  0  0  0  0  0  0  0  0
   65.1980   35.3200   50.1260 C   0  0  0  0  0  0  0  0  0  0  0  0
   66.4000   35.3290   49.4100 C   0  0  0  0  0  0  0  0  0  0  0  0
   66.3670   34.9120   48.0740 C   0  0  0  0  0  0  0  0  0  0  0  0
   67.3780   34.8370   47.1400 N   0  0  0  0  0  0  0  0  0  0  0  0
  1  2  3  0
  2  3  1  0
  3  4  2  0
  4  5  1  0
  5  6  2  0
  6  7  1  0
  7  8  1  0
  8  9  1  0
  9 10  2  0
 10 11  1  0
 11 12  2  0
 12 13  1  0
 13 14  2  0
 14 15  1  0
 15 16  2  0
 15 17  1  0
 17 18  1  0
 14 19  1  0
 19 20  2  0
 20 21  1  0
  6 22  1  0
 22 23  2  0
 23 24  1  0
 24 25  2  0
 25 26  1  0
 26  3  1  0
 25  5  1  0
 21  9  1  0
 20 11  1  0
M  END
